[TITLE]


[JUNCTIONS]
;ID              	Elev        	Demand      	Pattern         
 101147X         	354.978394  	0.000000    	                	;
 101147Y         	354.978394  	0.052662    	Domestic        	;
 100593X         	348.941589  	0.000000    	                	;
 100593Y         	348.941589  	0.032407    	Domestic        	;
 100605X         	349.924591  	0.000000    	                	;
 100605Y         	349.924591  	0.040509    	Domestic        	;
 101284X         	342.649292  	0.000000    	                	;
 101284Y         	342.649292  	0.012153    	Domestic        	;
 101498X         	343.185608  	0.000000    	                	;
 101498Y         	343.185608  	0.024306    	Domestic        	;
 101277X         	343.971588  	0.036458    	Domestic        	;
 101277Y         	343.971588  	0.012153    	Domestic        	;
 101263X         	368.997711  	0.004051    	Domestic        	;
 101263Y         	368.997711  	0.000000    	                	;
 4002187X        	378.797699  	0.004051    	Domestic        	;
 4002187Y        	378.797699  	0.000000    	                	;
 101269X         	366.992096  	0.016204    	Domestic        	;
 101269Y         	366.992096  	0.000000    	                	;
 100903X         	349.887299  	0.000000    	                	;
 100903Y         	349.887299  	0.060764    	Domestic        	;
 101275X         	343.001099  	0.000000    	                	;
 101275Y         	343.001099  	0.000000    	                	;
 101133X         	359.630096  	0.000000    	                	;
 101133Y         	359.630096  	0.000000    	                	;
 101154X         	349.842285  	0.020255    	Domestic        	;
 101154Y         	349.842285  	0.000000    	                	;
 4002063X        	370.801300  	0.000000    	                	;
 4002063Y        	370.801300  	0.004051    	Domestic        	;
 101132X         	360.011597  	0.004051    	Domestic        	;
 101132Y         	360.011597  	0.012153    	Domestic        	;
 101155X         	350.989594  	0.000000    	                	;
 101155Y         	350.989594  	0.028356    	Domestic        	;
 100579X         	346.944489  	0.000000    	                	;
 100579Y         	346.944489  	0.000000    	                	;
 101137X         	353.894989  	0.004051    	Domestic        	;
 101137Y         	353.894989  	0.036458    	Domestic        	;
 100592X         	347.055206  	0.000000    	                	;
 100592Y         	347.055206  	0.008102    	Domestic        	;
 100595X         	348.926514  	0.004051    	Domestic        	;
 100595Y         	348.926514  	0.024306    	Domestic        	;
 100587X         	347.926392  	0.000000    	                	;
 100587Y         	347.926392  	0.004051    	Domestic        	;
 101146X         	349.993011  	0.000000    	                	;
 101146Y         	349.993011  	0.020255    	Domestic        	;
 101579X         	338.983185  	0.044560    	Domestic        	;
 101579Y         	338.983185  	0.004051    	Domestic        	;
 101258X         	367.036011  	0.000000    	                	;
 101258Y         	367.036011  	0.032407    	Domestic        	;
 100731X         	347.998505  	0.000000    	                	;
 100731Y         	347.998505  	0.012153    	Domestic        	;
 101501X         	337.987610  	0.016204    	Domestic        	;
 101501Y         	337.987610  	0.000000    	                	;
 101283X         	344.000610  	0.000000    	                	;
 101283Y         	344.000610  	0.000000    	                	;
 101151X         	350.894012  	0.000000    	                	;
 101151Y         	350.894012  	0.052662    	Domestic        	;
 102270X         	347.997711  	0.000000    	                	;
 102270Y         	347.997711  	0.000000    	                	;
 102282X         	347.998688  	0.000000    	                	;
 102282Y         	347.998688  	0.000000    	                	;
 100597X         	349.975800  	0.008102    	Domestic        	;
 100597Y         	349.975800  	0.004051    	Domestic        	;
 90301X          	379.970306  	0.000000    	                	;
 90301Y          	379.970306  	0.032407    	Domestic        	;
 101278X         	344.221191  	0.004051    	Domestic        	;
 101278Y         	344.221191  	0.064815    	Domestic        	;
 101926X         	338.997711  	0.004051    	Domestic        	;
 101926Y         	338.997711  	0.036458    	Domestic        	;
 101499X         	342.399414  	0.024306    	Domestic        	;
 101499Y         	342.399414  	0.000000    	                	;
 100725X         	349.017700  	0.000000    	                	;
 100725Y         	349.017700  	0.012153    	Domestic        	;
 100737X         	348.130707  	0.000000    	                	;
 100737Y         	348.130707  	0.004051    	Domestic        	;
 101141X         	348.335693  	0.016204    	Domestic        	;
 101141Y         	348.335693  	0.000000    	                	;
 101131X         	361.998901  	0.004051    	Domestic        	;
 101131Y         	361.998901  	0.000000    	                	;
 100588X         	347.356598  	0.036458    	Domestic        	;
 100588Y         	347.356598  	0.000000    	                	;
 100600X         	350.903992  	0.004051    	Domestic        	;
 100600Y         	350.903992  	0.012153    	Domestic        	;
 101134X         	354.005310  	0.000000    	                	;
 101134Y         	354.005310  	0.040509    	Domestic        	;
 101270X         	368.763092  	0.000000    	                	;
 101270Y         	368.763092  	0.024306    	Domestic        	;
 90292X          	375.991302  	0.040509    	Domestic        	;
 90292Y          	375.991302  	0.020255    	Domestic        	;
 100730X         	348.177307  	0.000000    	                	;
 100730Y         	348.177307  	0.040509    	Domestic        	;
 101121X         	358.121796  	0.000000    	                	;
 101121Y         	358.539612  	0.008102    	Domestic        	;
 101160X         	343.515411  	0.048611    	Domestic        	;
 101160Y         	343.515411  	0.004051    	Domestic        	;
 101145X         	349.996307  	0.000000    	                	;
 101145Y         	349.996307  	0.000000    	                	;
 100905X         	351.553589  	0.000000    	                	;
 100905Y         	351.553589  	0.012153    	Domestic        	;
 101279X         	343.954315  	0.000000    	                	;
 101279Y         	343.954315  	0.008102    	Domestic        	;
 101282X         	343.994110  	0.000000    	                	;
 101282Y         	343.994110  	0.024306    	Domestic        	;
 100902X         	350.480896  	0.064815    	Domestic        	;
 100902Y         	350.480896  	0.000000    	                	;
 100728X         	347.988800  	0.028356    	Domestic        	;
 100728Y         	347.988800  	0.004051    	Domestic        	;
 100735X         	348.039215  	0.000000    	                	;
 100735Y         	348.039215  	0.016204    	Domestic        	;
 102072X         	381.435608  	0.000000    	                	;
 102072Y         	381.435608  	0.000000    	                	;
 100598X         	349.909698  	0.000000    	                	;
 100598Y         	349.909698  	0.016204    	Domestic        	;
 100596X         	349.320099  	0.024306    	Domestic        	;
 100596Y         	349.320099  	0.028356    	Domestic        	;
 101136X         	362.880005  	0.000000    	                	;
 101136Y         	362.880005  	0.052662    	Domestic        	;
 101577X         	337.859711  	0.000000    	                	;
 101577Y         	337.859711  	0.012153    	Domestic        	;
 101256X         	365.110596  	0.000000    	                	;
 101256Y         	365.110596  	0.008102    	Domestic        	;
 101126X         	352.023804  	0.000000    	                	;
 101126Y         	352.023804  	0.060764    	Domestic        	;
 90599X          	361.380402  	0.000000    	                	;
 90599Y          	361.380402  	0.000000    	                	;
 4001727X        	337.945892  	0.012153    	Domestic        	;
 4001727Y        	337.945892  	0.000000    	                	;
 101496X         	342.735809  	0.000000    	                	;
 101496Y         	342.735809  	0.012153    	Domestic        	;
 101129X         	362.123810  	0.024306    	Domestic        	;
 101129Y         	362.123810  	0.004051    	Domestic        	;
 101135X         	350.488312  	0.004051    	Domestic        	;
 101135Y         	350.488312  	0.032407    	Domestic        	;
 91381X          	391.000885  	0.000000    	                	;
 91381Y          	391.000885  	0.000000    	                	;
 100911X         	350.894989  	0.000000    	                	;
 100911Y         	350.894989  	0.012153    	Domestic        	;
 101125X         	353.987213  	0.000000    	                	;
 101125Y         	353.987213  	0.048611    	Domestic        	;
 101573X         	338.916199  	0.028356    	Domestic        	;
 101573Y         	338.916199  	0.000000    	                	;
 101285X         	343.679596  	0.000000    	                	;
 101285Y         	343.679596  	0.000000    	                	;
 101257X         	357.077606  	0.036458    	Domestic        	;
 101257Y         	357.077606  	0.000000    	                	;
 101142X         	348.691711  	0.000000    	                	;
 101142Y         	348.691711  	0.008102    	Domestic        	;
 101280X         	344.999695  	0.008102    	Domestic        	;
 101280Y         	344.999695  	0.012153    	Domestic        	;
 100603X         	350.950287  	0.004051    	Domestic        	;
 100603Y         	350.950287  	0.000000    	                	;
 90298X          	386.322815  	0.004051    	Domestic        	;
 90298Y          	386.322815  	0.000000    	                	;
 102088X         	358.490997  	0.008102    	Domestic        	;
 102088Y         	358.490997  	0.000000    	                	;
 101572X         	342.362396  	0.000000    	                	;
 101572Y         	342.362396  	0.008102    	Domestic        	;
 4006335X        	382.032990  	0.000000    	                	;
 4006335Y        	382.032990  	0.000000    	                	;
 100910X         	353.743988  	0.048611    	Domestic        	;
 100910Y         	353.743988  	0.008102    	Domestic        	;
 101281X         	344.914612  	0.000000    	                	;
 101281Y         	344.914612  	0.048611    	Domestic        	;
 100733X         	348.996185  	0.000000    	                	;
 100733Y         	348.996185  	0.012153    	Domestic        	;
 101580X         	338.938385  	0.000000    	                	;
 101580Y         	338.938385  	0.004051    	Domestic        	;
 101578X         	337.986786  	0.000000    	                	;
 101578Y         	337.986786  	0.008102    	Domestic        	;
 100607X         	345.790314  	0.000000    	                	;
 100607Y         	345.790314  	0.000000    	                	;
 100726X         	349.029602  	0.012153    	Domestic        	;
 100726Y         	349.029602  	0.000000    	                	;
 101130X         	361.892792  	0.000000    	                	;
 101130Y         	361.892792  	0.044560    	Domestic        	;
 101264X         	367.055603  	0.000000    	                	;
 101264Y         	367.055603  	0.016204    	Domestic        	;
 100591X         	347.023987  	0.012153    	Domestic        	;
 100591Y         	347.023987  	0.000000    	                	;
 100729X         	347.979706  	0.000000    	                	;
 100729Y         	347.979706  	0.008102    	Domestic        	;
 101144X         	349.978790  	0.052662    	Domestic        	;
 101144Y         	349.978790  	0.000000    	                	;
 100736X         	347.998688  	0.020255    	Domestic        	;
 100736Y         	347.998688  	0.000000    	                	;
 91384X          	382.347900  	0.000000    	                	;
 91384Y          	382.347900  	0.000000    	                	;
 4006332X        	335.829102  	0.000000    	                	;
 4006332Y        	335.829102  	0.000000    	                	;
 101118X         	350.927887  	0.000000    	                	;
 101118Y         	350.927887  	0.044560    	Domestic        	;
 101584X         	337.971802  	0.004051    	Domestic        	;
 101584Y         	337.971802  	0.028356    	Domestic        	;
 102128X         	343.002197  	0.024306    	Domestic        	;
 102128Y         	342.997894  	0.036458    	Domestic        	;
 100912X         	348.935699  	0.016204    	Domestic        	;
 100912Y         	348.935699  	0.000000    	                	;
 91260X          	361.420288  	0.000000    	                	;
 91260Y          	361.420288  	0.000000    	                	;
 4002042X        	372.049103  	0.024306    	Domestic        	;
 4002042Y        	372.049103  	0.028356    	Domestic        	;
 100589X         	346.866486  	0.012153    	Domestic        	;
 100589Y         	346.866486  	0.000000    	                	;
 101500X         	338.810211  	0.000000    	                	;
 101500Y         	338.810211  	0.024306    	Domestic        	;
 100907X         	350.820007  	0.056713    	Domestic        	;
 100907Y         	350.820007  	0.000000    	                	;
 101265X         	368.019287  	0.020255    	Domestic        	;
 101265Y         	368.019287  	0.000000    	                	;
 100606X         	347.977692  	0.004051    	Domestic        	;
 100606Y         	347.977692  	0.000000    	                	;
 100734X         	348.156311  	0.028356    	Domestic        	;
 100734Y         	348.156311  	0.004051    	Domestic        	;
 100581X         	345.973511  	0.028356    	Domestic        	;
 100581Y         	345.973511  	0.000000    	                	;
 101140X         	348.493500  	0.024306    	Domestic        	;
 101140Y         	348.493500  	0.000000    	                	;
 101138X         	349.729401  	0.000000    	                	;
 101138Y         	349.729401  	0.008102    	Domestic        	;
 101255X         	359.333801  	0.000000    	                	;
 101255Y         	359.333801  	0.000000    	                	;
 101158X         	342.489502  	0.000000    	                	;
 101158Y         	342.489502  	0.012153    	Domestic        	;
 101571X         	342.160187  	0.000000    	                	;
 101571Y         	342.160187  	0.020255    	Domestic        	;
 90297X          	387.039307  	0.004051    	Domestic        	;
 90297Y          	387.039307  	0.020255    	Domestic        	;
 101268X         	368.060913  	0.008102    	Domestic        	;
 101268Y         	368.060913  	0.000000    	                	;
 101276X         	342.903107  	0.000000    	                	;
 101276Y         	342.903107  	0.024306    	Domestic        	;
 101259X         	368.121185  	0.020255    	Domestic        	;
 101259Y         	368.121185  	0.000000    	                	;
 101117X         	349.190704  	0.004051    	Domestic        	;
 101117Y         	349.190704  	0.028356    	Domestic        	;
 101266X         	368.066406  	0.000000    	                	;
 101266Y         	368.066406  	0.008102    	Domestic        	;
 91261X          	362.047485  	0.040509    	Domestic        	;
 91261Y          	362.047485  	0.000000    	                	;
 100584X         	348.019989  	0.064815    	Domestic        	;
 100584Y         	348.019989  	0.004051    	Domestic        	;
 100738X         	347.999115  	0.000000    	                	;
 100738Y         	347.999115  	0.028356    	Domestic        	;
 100586X         	347.969788  	0.000000    	                	;
 100586Y         	347.969788  	0.000000    	                	;
 101581X         	338.965088  	0.020255    	Domestic        	;
 101581Y         	338.965088  	0.036458    	Domestic        	;
 101583X         	339.047485  	0.016204    	Domestic        	;
 101583Y         	339.047485  	0.000000    	                	;
 100585X         	347.965088  	0.008102    	Domestic        	;
 100585Y         	347.965088  	0.000000    	                	;
 101261X         	367.055603  	0.004051    	Domestic        	;
 101261Y         	367.055603  	0.012153    	Domestic        	;
 101150X         	354.221313  	0.000000    	                	;
 101150Y         	354.221313  	0.000000    	                	;
 101152X         	349.729401  	0.000000    	                	;
 101152Y         	349.729401  	0.012153    	Domestic        	;
 102069X         	369.576508  	0.004051    	Domestic        	;
 102069Y         	369.576508  	0.012153    	Domestic        	;
 101262X         	368.883392  	0.004051    	Domestic        	;
 101262Y         	368.883392  	0.012153    	Domestic        	;
 100582X         	345.978790  	0.020255    	Domestic        	;
 100582Y         	345.978790  	0.000000    	                	;
 90272X          	367.000214  	0.000000    	                	;
 90272Y          	367.000214  	0.000000    	                	;
 100904X         	351.343109  	0.016204    	Domestic        	;
 100904Y         	351.343109  	0.000000    	                	;
 90271X          	366.106689  	0.004051    	Domestic        	;
 90271Y          	366.106689  	0.004051    	Domestic        	;
 102070X         	368.974792  	0.000000    	                	;
 102070Y         	368.974792  	0.016204    	Domestic        	;
 101495X         	343.703308  	0.000000    	                	;
 101495Y         	343.703308  	0.004051    	Domestic        	;
 101924X         	340.608490  	0.000000    	                	;
 101924Y         	340.884399  	0.020255    	Domestic        	;
 100900X         	349.041595  	0.000000    	                	;
 100900Y         	349.041595  	0.044560    	Domestic        	;
 101260X         	364.043091  	0.000000    	                	;
 101260Y         	364.043091  	0.000000    	                	;
 100732X         	348.067688  	0.000000    	                	;
 100732Y         	348.067688  	0.000000    	                	;
 101497X         	337.998413  	0.000000    	                	;
 101497Y         	337.998413  	0.000000    	                	;
 90300X          	378.421906  	0.040509    	Domestic        	;
 90300Y          	378.421906  	0.000000    	                	;
 101128X         	362.095612  	0.000000    	                	;
 101128Y         	362.095612  	0.020255    	Domestic        	;
 100583X         	345.996613  	0.024306    	Domestic        	;
 100583Y         	345.996613  	0.000000    	                	;
 100590X         	347.022400  	0.000000    	                	;
 100590Y         	347.022400  	0.008102    	Domestic        	;
 101119X         	350.884705  	0.000000    	                	;
 101119Y         	350.884705  	0.040509    	Domestic        	;
 101139X         	349.339691  	0.004051    	Domestic        	;
 101139Y         	349.339691  	0.000000    	                	;
 101159X         	342.996704  	0.000000    	                	;
 101159Y         	342.996704  	0.000000    	                	;
 100906X         	350.941498  	0.004051    	Domestic        	;
 100906Y         	350.941498  	0.024306    	Domestic        	;
 101149X         	353.745911  	0.000000    	                	;
 101149Y         	353.745911  	0.000000    	                	;
 101153X         	362.067291  	0.008102    	Domestic        	;
 101153Y         	362.067291  	0.000000    	                	;
 101124X         	355.672302  	0.044560    	Domestic        	;
 101124Y         	355.672302  	0.004051    	Domestic        	;
 101148X         	354.114105  	0.016204    	Domestic        	;
 101148Y         	354.114105  	0.004051    	Domestic        	;
 101271X         	369.000214  	0.000000    	                	;
 101271Y         	369.000214  	0.024306    	Domestic        	;
 100908X         	349.997314  	0.000000    	                	;
 100908Y         	349.997314  	0.012153    	Domestic        	;
 101143X         	349.014099  	0.052662    	Domestic        	;
 101143Y         	349.014099  	0.000000    	                	;
 102071X         	377.022491  	0.000000    	                	;
 102071Y         	377.022491  	0.004051    	Domestic        	;
 101494X         	343.235291  	0.012153    	Domestic        	;
 101494Y         	343.235291  	0.000000    	                	;
 100604X         	349.839508  	0.008102    	Domestic        	;
 100604Y         	349.839508  	0.000000    	                	;
 100594X         	348.940491  	0.000000    	                	;
 100594Y         	348.940491  	0.040509    	Domestic        	;
 100739X         	349.005310  	0.000000    	                	;
 100739Y         	349.005310  	0.032407    	Domestic        	;
 101116X         	348.999115  	0.000000    	                	;
 101116Y         	348.999115  	0.004051    	Domestic        	;
 100909X         	349.878510  	0.000000    	                	;
 100909Y         	349.878510  	0.004051    	Domestic        	;
 100724X         	349.023499  	0.052662    	Domestic        	;
 100724Y         	349.023499  	0.000000    	                	;
 101120X         	354.223785  	0.000000    	                	;
 101120Y         	354.223785  	0.028356    	Domestic        	;
 4001772X        	340.539612  	0.000000    	                	;
 4001772Y        	340.539612  	0.000000    	                	;
 101210X         	344.253693  	0.040509    	Domestic        	;
 101210Y         	344.253693  	0.000000    	                	;
 101127X         	352.048096  	0.000000    	                	;
 101127Y         	352.048096  	0.036458    	Domestic        	;
 101122X         	359.020203  	0.004051    	Domestic        	;
 101122Y         	359.020203  	0.000000    	                	;
 100578X         	344.998596  	0.000000    	                	;
 100578Y         	344.998596  	0.028356    	Domestic        	;
 101123X         	357.279297  	0.044560    	Domestic        	;
 101123Y         	357.279297  	0.000000    	                	;
 100580X         	347.005615  	0.004051    	Domestic        	;
 100580Y         	347.005615  	0.012153    	Domestic        	;
 101576X         	338.995697  	0.000000    	                	;
 101576Y         	338.995697  	0.032407    	Domestic        	;
 101582X         	338.037292  	0.012153    	Domestic        	;
 101582Y         	338.037292  	0.000000    	                	;
 101925X         	340.903503  	0.020255    	Domestic        	;
 101925Y         	340.903503  	0.000000    	                	;
 4006334X        	349.999695  	0.000000    	                	;
 4006334Y        	349.999695  	0.000000    	                	;
 101574X         	338.893494  	0.000000    	                	;
 101574Y         	338.893494  	0.000000    	                	;
 101274X         	343.691193  	0.000000    	                	;
 101274Y         	343.691193  	0.000000    	                	;
 100914X         	348.950287  	0.000000    	                	;
 100914Y         	348.950287  	0.032407    	Domestic        	;
 4006333X        	336.650787  	0.000000    	                	;
 4006333Y        	336.650787  	0.000000    	                	;
 91307X          	390.950806  	0.000000    	                	;
 91307Y          	390.950806  	0.000000    	                	;
 101575X         	338.884491  	0.000000    	                	;
 101575Y         	338.884491  	0.032407    	Domestic        	;
 102089X         	358.699310  	0.000000    	                	;
 102089Y         	358.699310  	0.008102    	Domestic        	;
 4001705X        	336.035004  	0.004051    	Domestic        	;
 4001705Y        	336.035004  	0.000000    	                	;
 90295X          	370.631989  	0.032407    	Domestic        	;
 90295Y          	370.631989  	0.016204    	Domestic        	;
 100913X         	348.943604  	0.000000    	                	;
 100913Y         	348.943604  	0.008102    	Domestic        	;
 100727X         	348.748688  	0.056713    	Domestic        	;
 100727Y         	348.748688  	0.004051    	Domestic        	;
 92305X          	389.396912  	0.000000    	                	;
 92305Y          	389.396912  	0.020255    	Domestic        	;
 92307X          	388.563110  	0.040509    	Domestic        	;
 92307Y          	388.563110  	0.008102    	Domestic        	;
 92308X          	389.950287  	0.004051    	Domestic        	;
 92308Y          	389.950287  	0.036458    	Domestic        	;
 92309X          	389.162994  	0.008102    	Domestic        	;
 92309Y          	389.162994  	0.000000    	                	;
 94122X          	376.730194  	0.000000    	                	;
 94122Y          	376.730194  	0.012153    	Domestic        	;
 94123X          	376.981201  	0.000000    	                	;
 94123Y          	376.981201  	0.008102    	Domestic        	;
 94124X          	389.422791  	0.000000    	                	;
 94124Y          	389.422791  	0.036458    	Domestic        	;
 94125X          	373.467987  	0.036458    	Domestic        	;
 94125Y          	373.467987  	0.004051    	Domestic        	;
 94126X          	385.100403  	0.052662    	Domestic        	;
 94126Y          	385.100403  	0.000000    	                	;
 94127X          	373.828491  	0.000000    	                	;
 94127Y          	373.828491  	0.028356    	Domestic        	;
 899987X         	381.412201  	0.000000    	                	;
 899987Y         	381.412201  	0.000000    	                	;
 XXXX000004      	343.484100  	0.008102    	Domestic        	;
 XXXX000005      	340.608490  	0.008102    	Domestic        	;
 XXXX000006      	340.999298  	0.032407    	Domestic        	;
 XXXX000035      	342.903107  	0.000000    	                	;
 XXXX000076      	376.016296  	0.024306    	Domestic        	;
 XXXX000077      	376.232086  	0.012153    	Domestic        	;
 XXXX000078      	377.421814  	0.020255    	Domestic        	;
 XXXX000082      	347.023987  	0.000000    	                	;
 XXXX000083      	343.961792  	0.012153    	Domestic        	;
 XXXX000084      	343.734589  	0.000000    	                	;
 XXXX000089      	347.825806  	0.000000    	                	;
 XXXX000090      	347.984497  	0.000000    	                	;
 XXXX000091      	382.548096  	0.000000    	                	;
 XXXX000102      	356.822601  	0.004051    	Domestic        	;
 XXXX000103      	357.567993  	0.000000    	                	;
 XXXX000104      	358.093597  	0.000000    	                	;
 XXXX000117      	368.763092  	0.004051    	Domestic        	;
 XXXX000118      	369.000214  	0.004051    	Domestic        	;
 XXXX000156      	339.001190  	0.020255    	Domestic        	;
 XXXX000157      	337.859711  	0.008102    	Domestic        	;
 XXXX000167      	338.936493  	0.052662    	Domestic        	;
 XXXX000168      	338.938385  	0.020255    	Domestic        	;
 XXXX000169      	338.998688  	0.016204    	Domestic        	;
 XXXX000200      	389.422791  	0.000000    	                	;
 XXXX000201      	379.542389  	0.052662    	Domestic        	;
 XXXX000202      	385.100403  	0.048611    	Domestic        	;
 XXXX000203      	376.992004  	0.016204    	Domestic        	;
 XXXX000232      	383.752808  	0.000000    	                	;
 XXXX000233      	384.591492  	0.008102    	Domestic        	;
 XXXX000236      	390.897491  	0.004051    	Domestic        	;
 XXXX000263      	347.999115  	0.000000    	                	;
 XXXX000264      	343.948700  	0.012153    	Domestic        	;
 XXXX000270      	361.420288  	0.012153    	Domestic        	;
 XXXX000271      	354.917389  	0.004051    	Domestic        	;
 XXXX000273      	361.420288  	0.000000    	                	;
 XXXX000279      	336.275391  	0.000000    	                	;
 XXXX000280      	335.674286  	0.000000    	                	;
 XXXX000297      	342.998505  	0.093171    	Domestic        	;
 XXXX000298      	342.489502  	0.000000    	                	;
 XXXX000299      	342.710388  	0.000000    	                	;
 XXXX000312      	353.637390  	0.040509    	Domestic        	;
 XXXX000313      	354.221313  	0.024306    	Domestic        	;
 XXXX000314      	353.850708  	0.012153    	Domestic        	;
 XXXX000379      	347.997894  	0.000000    	                	;
 XXXX000380      	348.691711  	0.008102    	Domestic        	;
 XXXX000416      	361.580414  	0.004051    	Domestic        	;
 XXXX000417      	362.605804  	0.016204    	Domestic        	;
 XXXX000421      	368.009888  	0.008102    	Domestic        	;
 XXXX000422      	366.106689  	0.016204    	Domestic        	;
 XXXX000423      	366.106689  	0.056713    	Domestic        	;
 XXXX000430      	361.783386  	0.020255    	Domestic        	;
 XXXX000431      	365.110596  	0.032407    	Domestic        	;
 XXXX000472      	350.849701  	0.044560    	Domestic        	;
 XXXX000473      	349.546600  	0.000000    	                	;
 XXXX000474      	344.195190  	0.020255    	Domestic        	;
 XXXX000475      	343.958008  	0.101273    	Domestic        	;
 XXXX000476      	343.801514  	0.016204    	Domestic        	;
 XXXX000477      	343.801514  	0.004051    	Domestic        	;
 XXXX000497      	348.202911  	0.004051    	Domestic        	;
 XXXX000498      	349.005493  	0.012153    	Domestic        	;
 XXXX000505      	359.630096  	0.016204    	Domestic        	;
 XXXX000506      	351.467285  	0.012153    	Domestic        	;
 XXXX000507      	355.672302  	0.040509    	Domestic        	;
 XXXX000508      	358.946899  	0.048611    	Domestic        	;
 XXXX000509      	353.987213  	0.052662    	Domestic        	;
 XXXX000510      	351.932709  	0.008102    	Domestic        	;
 XXXX000511      	357.279297  	0.036458    	Domestic        	;
 XXXX000512      	367.101013  	0.020255    	Domestic        	;
 XXXX000527      	376.704010  	0.020255    	Domestic        	;
 XXXX000528      	376.981201  	0.008102    	Domestic        	;
 XXXX000529      	377.527893  	0.008102    	Domestic        	;
 XXXX000534      	362.086304  	0.012153    	Domestic        	;
 XXXX000535      	367.055603  	0.020255    	Domestic        	;
 XXXX000536      	362.815613  	0.032407    	Domestic        	;
 XXXX000558      	338.627106  	0.032407    	Domestic        	;
 XXXX000559      	337.998413  	0.016204    	Domestic        	;
 XXXX000560      	337.987610  	0.028356    	Domestic        	;
 XXXX000561      	359.425812  	0.020255    	Domestic        	;